
     RDKit          3D

 14 15  0  0  0  0  0  0  0  0999 V2000
  -17.8590  -15.2600   -5.7220 N   0  0  0  0  0  0  0  0  0  0  0  0
  -20.6700  -17.2770   -7.5620 C   0  0  0  0  0  0  0  0  0  0  0  0
  -18.9420  -15.9130   -8.3700 O   0  0  0  0  0  0  0  0  0  0  0  0
  -19.9310  -15.9300   -7.3270 C   0  0  2  0  0  0  0  0  0  0  0  0
  -17.5960  -16.1730   -8.0210 C   0  0  0  0  0  0  0  0  0  0  0  0
  -17.1060  -15.1300   -7.0100 C   0  0  0  0  0  0  0  0  0  0  0  0
  -19.3790  -15.6430   -5.8150 C   0  0  1  0  0  0  0  0  0  0  0  0
  -19.6660  -16.7700   -4.8110 C   0  0  0  0  0  0  0  0  0  0  0  0
  -17.4580  -14.3720   -4.7020 C   0  0  0  0  0  0  0  0  0  0  0  0
  -16.3240  -12.8570   -3.5040 C   0  0  0  0  0  0  0  0  0  0  0  0
  -15.2200  -11.9040   -3.3060 C   0  0  0  0  0  0  0  0  0  0  0  0
  -16.4000  -13.5410   -4.7330 N   0  0  0  0  0  0  0  0  0  0  0  0
  -17.2240  -13.0950   -2.5790 N   0  0  0  0  0  0  0  0  0  0  0  0
  -18.3080  -14.2490   -3.1520 S   0  0  0  0  0  0  0  0  0  0  0  0
  1  6  1  0
  1  7  1  0
  1  9  1  0
  3  4  1  0
  3  5  1  0
  4  2  1  1
  4  7  1  0
  5  6  1  0
  7  8  1  1
  9 12  2  0
  9 14  1  0
 10 11  1  0
 10 12  1  0
 10 13  2  0
 13 14  1  0
M  END
