
     RDKit          3D

 14 15  0  0  0  0  0  0  0  0999 V2000
   -2.7300    3.7860    3.7330 N   0  0  0  0  0  0  0  0  0  0  0  0
   -4.1910    6.0780    1.6730 C   0  0  0  0  0  0  0  0  0  0  0  0
   -1.0600    7.0640    3.3390 O   0  0  0  0  0  0  0  0  0  0  0  0
   -2.6680    6.0480    1.8670 C   0  0  1  0  0  0  0  0  0  0  0  0
   -1.9370    7.1970    1.1730 C   0  0  0  0  0  0  0  0  0  0  0  0
   -0.6560    7.3090    2.0060 C   0  0  0  0  0  0  0  0  0  0  0  0
   -2.2230    6.2560    3.3530 C   0  0  1  0  0  0  0  0  0  0  0  0
   -1.9440    4.9160    4.0930 C   0  0  0  0  0  0  0  0  0  0  0  0
   -2.6290    2.5300    4.2500 C   0  0  0  0  0  0  0  0  0  0  0  0
   -3.3880    1.4370    3.9070 C   0  0  0  0  0  0  0  0  0  0  0  0
   -3.0400    0.3230    4.6900 N   0  0  0  0  0  0  0  0  0  0  0  0
   -2.1320    0.5000    5.5280 N   0  0  0  0  0  0  0  0  0  0  0  0
   -1.0670    4.8760    4.9710 O   0  0  0  0  0  0  0  0  0  0  0  0
   -1.4860    2.1180    5.5360 S   0  0  0  0  0  0  0  0  0  0  0  0
  1  8  1  0
  1  9  1  0
  3  6  1  0
  3  7  1  0
  4  2  1  1
  4  5  1  0
  4  7  1  0
  5  6  1  0
  7  8  1  6
  8 13  2  0
  9 10  2  0
  9 14  1  0
 10 11  1  0
 11 12  2  0
 12 14  1  0
M  END
