
     RDKit          3D

 14 15  0  0  0  0  0  0  0  0999 V2000
  -22.2420   28.9880  -56.3380 N   0  0  0  0  0  0  0  0  0  0  0  0
  -21.3770   27.9220  -53.5560 C   0  0  0  0  0  0  0  0  0  0  0  0
  -22.7200   31.3960  -53.7840 O   0  0  0  0  0  0  0  0  0  0  0  0
  -22.2690   29.1530  -53.4250 C   0  0  1  0  0  0  0  0  0  0  0  0
  -22.1600   29.8390  -52.0710 C   0  0  0  0  0  0  0  0  0  0  0  0
  -22.8410   31.2040  -52.3700 C   0  0  0  0  0  0  0  0  0  0  0  0
  -21.8470   30.4000  -54.2540 C   0  0  1  0  0  0  0  0  0  0  0  0
  -21.8460   30.2380  -55.7920 C   0  0  0  0  0  0  0  0  0  0  0  0
  -22.2540   28.6090  -57.6280 C   0  0  0  0  0  0  0  0  0  0  0  0
  -22.6350   27.3780  -58.0480 C   0  0  0  0  0  0  0  0  0  0  0  0
  -22.4980   27.2270  -59.4300 N   0  0  0  0  0  0  0  0  0  0  0  0
  -22.0600   28.2400  -60.0200 N   0  0  0  0  0  0  0  0  0  0  0  0
  -21.5100   31.1970  -56.4760 O   0  0  0  0  0  0  0  0  0  0  0  0
  -21.7180   29.6090  -58.9750 S   0  0  0  0  0  0  0  0  0  0  0  0
  1  8  1  0
  1  9  1  0
  3  6  1  0
  3  7  1  0
  4  2  1  1
  4  5  1  0
  4  7  1  0
  5  6  1  0
  7  8  1  6
  8 13  2  0
  9 10  2  0
  9 14  1  0
 10 11  1  0
 11 12  2  0
 12 14  1  0
M  END
