
     RDKit          3D

 15 16  0  0  0  0  0  0  0  0999 V2000
  -30.3190    5.7740  -63.9320 N   0  0  0  0  0  0  0  0  0  0  0  0
  -27.6940    3.7550  -65.0660 C   0  0  0  0  0  0  0  0  0  0  0  0
  -29.9280    3.1260  -64.5590 O   0  0  0  0  0  0  0  0  0  0  0  0
  -29.1750    3.9960  -65.4140 C   0  0  1  0  0  0  0  0  0  0  0  0
  -29.6070    5.5120  -65.2450 C   0  0  0  0  0  0  0  0  0  0  0  0
  -31.4230    4.7670  -63.5750 C   0  0  1  0  0  0  0  0  0  0  0  0
  -32.8510    5.3510  -63.7030 C   0  0  0  0  0  0  0  0  0  0  0  0
  -31.2940    3.4670  -64.4350 C   0  0  0  0  0  0  0  0  0  0  0  0
  -30.0210    6.7940  -62.9880 C   0  0  0  0  0  0  0  0  0  0  0  0
  -28.8160    7.6750  -63.0910 C   0  0  0  0  0  0  0  0  0  0  0  0
  -27.5040    7.1320  -63.3990 C   0  0  0  0  0  0  0  0  0  0  0  0
  -26.5370    8.0310  -63.4160 N   0  0  0  0  0  0  0  0  0  0  0  0
  -28.8010    8.9800  -62.8730 N   0  0  0  0  0  0  0  0  0  0  0  0
  -30.7870    7.0200  -62.0730 O   0  0  0  0  0  0  0  0  0  0  0  0
  -27.1930    9.5490  -63.0450 S   0  0  0  0  0  0  0  0  0  0  0  0
  1  5  1  0
  1  6  1  0
  1  9  1  0
  3  4  1  0
  3  8  1  0
  4  2  1  1
  4  5  1  0
  6  7  1  6
  6  8  1  0
  9 10  1  0
  9 14  2  0
 10 11  1  0
 10 13  2  0
 11 12  2  0
 12 15  1  0
 13 15  1  0
M  END
