
     RDKit          3D

 15 16  0  0  0  0  0  0  0  0999 V2000
  -21.7890   29.7480  -56.5390 N   0  0  0  0  0  0  0  0  0  0  0  0
  -22.4540   28.2960  -53.1790 C   0  0  0  0  0  0  0  0  0  0  0  0
  -22.4840   30.5890  -53.8960 O   0  0  0  0  0  0  0  0  0  0  0  0
  -22.5870   29.2530  -54.3580 C   0  0  1  0  0  0  0  0  0  0  0  0
  -21.4030   29.0490  -55.3170 C   0  0  0  0  0  0  0  0  0  0  0  0
  -21.7080   31.2500  -56.2570 C   0  0  1  0  0  0  0  0  0  0  0  0
  -22.2080   32.2560  -57.3520 C   0  0  0  0  0  0  0  0  0  0  0  0
  -22.5660   31.5640  -54.9390 C   0  0  0  0  0  0  0  0  0  0  0  0
  -22.3030   29.1610  -57.7050 C   0  0  0  0  0  0  0  0  0  0  0  0
  -22.8290   27.7400  -57.8050 C   0  0  0  0  0  0  0  0  0  0  0  0
  -23.2330   26.8390  -56.6870 C   0  0  0  0  0  0  0  0  0  0  0  0
  -23.7470   25.7210  -57.0730 N   0  0  0  0  0  0  0  0  0  0  0  0
  -23.0680   27.2010  -58.9740 N   0  0  0  0  0  0  0  0  0  0  0  0
  -22.2340   29.7580  -58.7660 O   0  0  0  0  0  0  0  0  0  0  0  0
  -23.7660   25.6970  -58.7290 S   0  0  0  0  0  0  0  0  0  0  0  0
  1  5  1  0
  1  6  1  0
  1  9  1  0
  3  4  1  0
  3  8  1  0
  4  2  1  1
  4  5  1  0
  6  7  1  6
  6  8  1  0
  9 10  1  0
  9 14  2  0
 10 11  1  0
 10 13  2  0
 11 12  2  0
 12 15  1  0
 13 15  1  0
M  END
