
     RDKit          3D

 16 17  0  0  0  0  0  0  0  0999 V2000
   -7.8200    2.8710   -4.3290 N   0  0  0  0  0  0  0  0  0  0  0  0
   -8.1900    2.6630   -3.0060 C   0  0  0  0  0  0  0  0  0  0  0  0
   -8.2450    3.5680   -2.1510 O   0  0  0  0  0  0  0  0  0  0  0  0
   -7.4470    4.1090   -4.9360 C   0  0  0  0  0  0  0  0  0  0  0  0
   -9.9290    0.1440    1.0260 C   0  0  0  0  0  0  0  0  0  0  0  0
  -10.1480    0.1840   -1.2980 C   0  0  0  0  0  0  0  0  0  0  0  0
   -7.6710    5.3790   -4.3120 C   0  0  0  0  0  0  0  0  0  0  0  0
   -7.3860    6.5450   -5.0280 C   0  0  0  0  0  0  0  0  0  0  0  0
   -6.8920    6.4780   -6.3330 C   0  0  0  0  0  0  0  0  0  0  0  0
   -6.6570    5.2320   -6.9330 C   0  0  0  0  0  0  0  0  0  0  0  0
   -6.9210    4.0590   -6.2520 C   0  0  0  0  0  0  0  0  0  0  0  0
   -8.9240    0.8940   -1.4390 C   0  0  0  0  0  0  0  0  0  0  0  0
   -8.1920    1.1930   -0.2820 C   0  0  0  0  0  0  0  0  0  0  0  0
   -8.7050    0.8210    0.9650 C   0  0  0  0  0  0  0  0  0  0  0  0
   -8.5160    1.3180   -2.7230 N   0  0  0  0  0  0  0  0  0  0  0  0
  -10.6560   -0.1830   -0.0780 N   0  0  0  0  0  0  0  0  0  0  0  0
  1  2  1  0
  1  4  1  0
  2  3  2  0
  2 15  1  0
  4  7  2  0
  4 11  1  0
  5 14  2  0
  5 16  1  0
  6 12  1  0
  6 16  2  0
  7  8  1  0
  8  9  2  0
  9 10  1  0
 10 11  2  0
 12 13  2  0
 12 15  1  0
 13 14  1  0
M  END
